archive/ieee39_base - Copia.ana
DANA
IEEE 39 BUS SYSTEM - SHORT CIRCUIT ANALYSIS
DBAR
(Utilizar as mesmas barras do ANAREDE ou importar o .pwf)
DMAC
   30 100.0 0.031  0.031  0.031 (Gen 30: x'd=0.031)
   31 100.0 0.006  0.006  0.006 (Gen 31: x'd=0.006)
   32 100.0 0.0697 0.0697 0.0697 (Gen 32: x'd=0.0697)
   33 100.0 0.0531 0.0531 0.0531 (Gen 33: x'd=0.0531)
   34 100.0 0.0436 0.0436 0.0436 (Gen 34: x'd=0.0436)
   35 100.0 0.05   0.05   0.05   (Gen 35: x'd=0.05)
   36 100.0 0.049  0.049  0.049  (Gen 36: x'd=0.049)
   37 100.0 0.0463 0.0463 0.0463 (Gen 37: x'd=0.0463)
   38 100.0 0.025  0.025  0.025  (Gen 38: x'd=0.025)
   39 100.0 0.02   0.02   0.02   (Gen 39: x'd=0.02)
DALT
FAUL 4 FT (Falta na Barra 4 - Fase-Terra)
FIM
